plots/csv/rotor_angle_dev_bus03_julia.csv
t_s,rotor_angle_dev_rad,bus_voltage_angle_dev_rad,angle_source,angle_is_exact_bus_voltage
0.0,0.0,0.0,Vmag_get_voltage_magnitude_series__angle_get_voltage_angle_series,true
0.01,-2.2343238370581287e-16,-2.2343238370581287e-16,Vmag_get_voltage_magnitude_series__angle_get_voltage_angle_series,true
0.02,-3.649858193455206e-16,-3.649858193455206e-16,Vmag_get_voltage_magnitude_series__angle_get_voltage_angle_series,true
0.03,-2.2065682614424886e-16,-2.2065682614424886e-16,Vmag_get_voltage_magnitude_series__angle_get_voltage_angle_series,true
0.04,-2.0677903833643918e-16,-2.0677903833643918e-16,Vmag_get_voltage_magnitude_series__angle_get_voltage_angle_series,true
0.05,-1.387778780781393e-16,-1.387778780781393e-16,Vmag_get_voltage_magnitude_series__angle_get_voltage_angle_series,true
0.06,-2.2898349882893085e-16,-2.2898349882893085e-16,Vmag_get_voltage_magnitude_series__angle_get_voltage_angle_series,true
0.07,-1.8873791418628186e-16,-1.8873791418628186e-16,Vmag_get_voltage_magnitude_series__angle_get_voltage_angle_series,true
0.08,-1.1379786002409431e-16,-1.1379786002409431e-16,Vmag_get_voltage_magnitude_series__angle_get_voltage_angle_series,true
0.09,-1.4849232954360418e-16,-1.4849232954360418e-16,Vmag_get_voltage_magnitude_series__angle_get_voltage_angle_series,true
0.1,-2.5673907444456745e-16,-2.5673907444456745e-16,Vmag_get_voltage_magnitude_series__angle_get_voltage_angle_series,true
0.11,-0.0015626471645144796,-0.0015626471645144796,Vmag_get_voltage_magnitude_series__angle_get_voltage_angle_series,true
0.12,-0.001682463123041636,-0.001682463123041636,Vmag_get_voltage_magnitude_series__angle_get_voltage_angle_series,true
0.13,-0.0017786755901114805,-0.0017786755901114805,Vmag_get_voltage_magnitude_series__angle_get_voltage_angle_series,true
0.14,-0.0019426679109332268,-0.0019426679109332268,Vmag_get_voltage_magnitude_series__angle_get_voltage_angle_series,true
0.15,-0.002077983155155186,-0.002077983155155186,Vmag_get_voltage_magnitude_series__angle_get_voltage_angle_series,true
0.16,-0.002246659412723816,-0.002246659412723816,Vmag_get_voltage_magnitude_series__angle_get_voltage_angle_series,true
0.17,-0.002429089120245747,-0.002429089120245747,Vmag_get_voltage_magnitude_series__angle_get_voltage_angle_series,true
0.18,-0.002629331376560611,-0.002629331376560611,Vmag_get_voltage_magnitude_series__angle_get_voltage_angle_series,true
0.19,-0.002843643880542906,-0.002843643880542906,Vmag_get_voltage_magnitude_series__angle_get_voltage_angle_series,true
0.2,-0.0030727100195413735,-0.0030727100195413735,Vmag_get_voltage_magnitude_series__angle_get_voltage_angle_series,true
0.21,-0.0033148711979656765,-0.0033148711979656765,Vmag_get_voltage_magnitude_series__angle_get_voltage_angle_series,true
0.22,-0.0035693292360628485,-0.0035693292360628485,Vmag_get_voltage_magnitude_series__angle_get_voltage_angle_series,true
0.23,-0.003835037183886514,-0.003835037183886514,Vmag_get_voltage_magnitude_series__angle_get_voltage_angle_series,true
0.24,-0.004111134083557476,-0.004111134083557476,Vmag_get_voltage_magnitude_series__angle_get_voltage_angle_series,true
0.25,-0.004396764399912113,-0.004396764399912113,Vmag_get_voltage_magnitude_series__angle_get_voltage_angle_series,true
0.26,-0.004691158102883255,-0.004691158102883255,Vmag_get_voltage_magnitude_series__angle_get_voltage_angle_series,true
0.27,-0.004993600789844054,-0.004993600789844054,Vmag_get_voltage_magnitude_series__angle_get_voltage_angle_series,true
0.28,-0.005303433829880418,-0.005303433829880418,Vmag_get_voltage_magnitude_series__angle_get_voltage_angle_series,true
0.29,-0.005620043617188909,-0.005620043617188909,Vmag_get_voltage_magnitude_series__angle_get_voltage_angle_series,true
0.3,-0.005942852697361372,-0.005942852697361372,Vmag_get_voltage_magnitude_series__angle_get_voltage_angle_series,true
0.31,-0.006271310443825059,-0.006271310443825059,Vmag_get_voltage_magnitude_series__angle_get_voltage_angle_series,true
0.32,-0.006604884540862496,-0.006604884540862496,Vmag_get_voltage_magnitude_series__angle_get_voltage_angle_series,true
0.33,-0.006943053436227611,-0.006943053436227611,Vmag_get_voltage_magnitude_series__angle_get_voltage_angle_series,true
0.34,-0.007285300077182777,-0.007285300077182777,Vmag_get_voltage_magnitude_series__angle_get_voltage_angle_series,true
0.35,-0.007631106985547637,-0.007631106985547637,Vmag_get_voltage_magnitude_series__angle_get_voltage_angle_series,true
0.36,-0.007979952706913348,-0.007979952706913348,Vmag_get_voltage_magnitude_series__angle_get_voltage_angle_series,true
0.37,-0.008331309597515393,-0.008331309597515393,Vmag_get_voltage_magnitude_series__angle_get_voltage_angle_series,true
0.38,-0.008684642836926288,-0.008684642836926288,Vmag_get_voltage_magnitude_series__angle_get_voltage_angle_series,true
0.39,-0.00903941036583891,-0.00903941036583891,Vmag_get_voltage_magnitude_series__angle_get_voltage_angle_series,true
0.4,-0.009395063765183356,-0.009395063765183356,Vmag_get_voltage_magnitude_series__angle_get_voltage_angle_series,true
0.41,-0.009751049818495183,-0.009751049818495183,Vmag_get_voltage_magnitude_series__angle_get_voltage_angle_series,true
0.42,-0.010106812605644964,-0.010106812605644964,Vmag_get_voltage_magnitude_series__angle_get_voltage_angle_series,true
0.43,-0.010461795918700726,-0.010461795918700726,Vmag_get_voltage_magnitude_series__angle_get_voltage_angle_series,true
0.44,-0.010815445908412345,-0.010815445908412345,Vmag_get_voltage_magnitude_series__angle_get_voltage_angle_series,true
0.45,-0.01116721382437451,-0.01116721382437451,Vmag_get_voltage_magnitude_series__angle_get_voltage_angle_series,true
0.46,-0.011516558759563537,-0.011516558759563537,Vmag_get_voltage_magnitude_series__angle_get_voltage_angle_series,true
0.47,-0.011862950284194882,-0.011862950284194882,Vmag_get_voltage_magnitude_series__angle_get_voltage_angle_series,true
0.48,-0.012205870945619904,-0.012205870945619904,Vmag_get_voltage_magnitude_series__angle_get_voltage_angle_series,true
0.49,-0.012544818521807735,-0.012544818521807735,Vmag_get_voltage_magnitude_series__angle_get_voltage_angle_series,true
0.5,-0.012879308147875466,-0.012879308147875466,Vmag_get_voltage_magnitude_series__angle_get_voltage_angle_series,true
0.51,-0.013208874158071942,-0.013208874158071942,Vmag_get_voltage_magnitude_series__angle_get_voltage_angle_series,true
0.52,-0.013533071712672335,-0.013533071712672335,Vmag_get_voltage_magnitude_series__angle_get_voltage_angle_series,true
0.53,-0.013851478138116491,-0.013851478138116491,Vmag_get_voltage_magnitude_series__angle_get_voltage_angle_series,true
0.54,-0.01416369417509525,-0.01416369417509525,Vmag_get_voltage_magnitude_series__angle_get_voltage_angle_series,true
0.55,-0.014469344984314002,-0.014469344984314002,Vmag_get_voltage_magnitude_series__angle_get_voltage_angle_series,true
0.56,-0.014768080954236467,-0.014768080954236467,Vmag_get_voltage_magnitude_series__angle_get_voltage_angle_series,true
0.57,-0.01505957832339008,-0.01505957832339008,Vmag_get_voltage_magnitude_series__angle_get_voltage_angle_series,true
0.58,-0.015343539790748578,-0.015343539790748578,Vmag_get_voltage_magnitude_series__angle_get_voltage_angle_series,true
0.59,-0.015619694920192417,-0.015619694920192417,Vmag_get_voltage_magnitude_series__angle_get_voltage_angle_series,true
0.6,-0.015887800460373636,-0.015887800460373636,Vmag_get_voltage_magnitude_series__angle_get_voltage_angle_series,true
0.61,-0.01614764051901216,-0.01614764051901216,Vmag_get_voltage_magnitude_series__angle_get_voltage_angle_series,true
0.62,-0.01639902672879956,-0.01639902672879956,Vmag_get_voltage_magnitude_series__angle_get_voltage_angle_series,true
0.63,-0.01664179833857731,-0.01664179833857731,Vmag_get_voltage_magnitude_series__angle_get_voltage_angle_series,true
0.64,-0.016875822138997593,-0.016875822138997593,Vmag_get_voltage_magnitude_series__angle_get_voltage_angle_series,true
0.65,-0.017100992409388654,-0.017100992409388654,Vmag_get_voltage_magnitude_series__angle_get_voltage_angle_series,true
0.66,-0.01731723068063653,-0.01731723068063653,Vmag_get_voltage_magnitude_series__angle_get_voltage_angle_series,true
0.67,-0.01752448554680455,-0.01752448554680455,Vmag_get_voltage_magnitude_series__angle_get_voltage_angle_series,true
0.68,-0.017722732316991972,-0.017722732316991972,Vmag_get_voltage_magnitude_series__angle_get_voltage_angle_series,true
0.69,-0.017911972565384435,-0.017911972565384435,Vmag_get_voltage_magnitude_series__angle_get_voltage_angle_series,true
0.7,-0.018092233667322453,-0.018092233667322453,Vmag_get_voltage_magnitude_series__angle_get_voltage_angle_series,true
0.71,-0.018263568173766002,-0.018263568173766002,Vmag_get_voltage_magnitude_series__angle_get_voltage_angle_series,true
0.72,-0.01842605316792987,-0.01842605316792987,Vmag_get_voltage_magnitude_series__angle_get_voltage_angle_series,true
0.73,-0.018579789456360577,-0.018579789456360577,Vmag_get_voltage_magnitude_series__angle_get_voltage_angle_series,true
0.74,-0.0187249007189578,-0.0187249007189578,Vmag_get_voltage_magnitude_series__angle_get_voltage_angle_series,true
0.75,-0.01886153257319581,-0.01886153257319581,Vmag_get_voltage_magnitude_series__angle_get_voltage_angle_series,true
0.76,-0.018989851523939345,-0.018989851523939345,Vmag_get_voltage_magnitude_series__angle_get_voltage_angle_series,true
0.77,-0.01911004386439249,-0.01911004386439249,Vmag_get_voltage_magnitude_series__angle_get_voltage_angle_series,true
0.78,-0.01922231446601822,-0.01922231446601822,Vmag_get_voltage_magnitude_series__angle_get_voltage_angle_series,true
0.79,-0.01932688553185993,-0.01932688553185993,Vmag_get_voltage_magnitude_series__angle_get_voltage_angle_series,true
0.8,-0.01942399528206153,-0.01942399528206153,Vmag_get_voltage_magnitude_series__angle_get_voltage_angle_series,true
0.81,-0.019513896574329333,-0.019513896574329333,Vmag_get_voltage_magnitude_series__angle_get_voltage_angle_series,true
0.82,-0.019596855489388144,-0.019596855489388144,Vmag_get_voltage_magnitude_series__angle_get_voltage_angle_series,true
0.83,-0.019673149857762993,-0.019673149857762993,Vmag_get_voltage_magnitude_series__angle_get_voltage_angle_series,true
0.84,-0.019743067797073473,-0.019743067797073473,Vmag_get_voltage_magnitude_series__angle_get_voltage_angle_series,true
0.85,-0.01980690622430853,-0.01980690622430853,Vmag_get_voltage_magnitude_series__angle_get_voltage_angle_series,true
0.86,-0.019864969340579713,-0.019864969340579713,Vmag_get_voltage_magnitude_series__angle_get_voltage_angle_series,true
0.87,-0.01991756709371651,-0.01991756709371651,Vmag_get_voltage_magnitude_series__angle_get_voltage_angle_series,true
0.88,-0.019965013719176826,-0.019965013719176826,Vmag_get_voltage_magnitude_series__angle_get_voltage_angle_series,true
0.89,-0.020007626284602762,-0.020007626284602762,Vmag_get_voltage_magnitude_series__angle_get_voltage_angle_series,true
0.9,-0.02004572322470017,-0.02004572322470017,Vmag_get_voltage_magnitude_series__angle_get_voltage_angle_series,true
0.91,-0.02007962289561739,-0.02007962289561739,Vmag_get_voltage_magnitude_series__angle_get_voltage_angle_series,true
0.92,-0.020109642263213108,-0.020109642263213108,Vmag_get_voltage_magnitude_series__angle_get_voltage_angle_series,true
0.93,-0.020136095578042735,-0.020136095578042735,Vmag_get_voltage_magnitude_series__angle_get_voltage_angle_series,true
0.94,-0.020159293119306657,-0.020159293119306657,Vmag_get_voltage_magnitude_series__angle_get_voltage_angle_series,true
0.95,-0.02017953997832039,-0.02017953997832039,Vmag_get_voltage_magnitude_series__angle_get_voltage_angle_series,true
0.96,-0.020197134957236972,-0.020197134957236972,Vmag_get_voltage_magnitude_series__angle_get_voltage_angle_series,true
0.97,-0.02021236951289497,-0.02021236951289497,Vmag_get_voltage_magnitude_series__angle_get_voltage_angle_series,true
0.98,-0.020225526788303243,-0.020225526788303243,Vmag_get_voltage_magnitude_series__angle_get_voltage_angle_series,true
0.99,-0.020236880699909345,-0.020236880699909345,Vmag_get_voltage_magnitude_series__angle_get_voltage_angle_series,true
1.0,-0.020246695124096714,-0.020246695124096714,Vmag_get_voltage_magnitude_series__angle_get_voltage_angle_series,true
1.01,-0.020255223189268846,-0.020255223189268846,Vmag_get_voltage_magnitude_series__angle_get_voltage_angle_series,true
1.02,-0.020262706609577755,-0.020262706609577755,Vmag_get_voltage_magnitude_series__angle_get_voltage_angle_series,true
1.03,-0.020269375137492752,-0.020269375137492752,Vmag_get_voltage_magnitude_series__angle_get_voltage_angle_series,true
1.04,-0.02027544607243278,-0.02027544607243278,Vmag_get_voltage_magnitude_series__angle_get_voltage_angle_series,true
1.05,-0.02028112389820828,-0.02028112389820828,Vmag_get_voltage_magnitude_series__angle_get_voltage_angle_series,true
1.06,-0.020286599968669407,-0.020286599968669407,Vmag_get_voltage_magnitude_series__angle_get_voltage_angle_series,true
1.07,-0.020292052279175243,-0.020292052279175243,Vmag_get_voltage_magnitude_series__angle_get_voltage_angle_series,true
1.08,-0.020297645335334603,-0.020297645335334603,Vmag_get_voltage_magnitude_series__angle_get_voltage_angle_series,true
1.09,-0.0203035300828807,-0.0203035300828807,Vmag_get_voltage_magnitude_series__angle_get_voltage_angle_series,true
1.1,-0.020309843941638442,-0.020309843941638442,Vmag_get_voltage_magnitude_series__angle_get_voltage_angle_series,true
1.11,-0.02031671086845487,-0.02031671086845487,Vmag_get_voltage_magnitude_series__angle_get_voltage_angle_series,true
1.12,-0.02032424152557935,-0.02032424152557935,Vmag_get_voltage_magnitude_series__angle_get_voltage_angle_series,true
1.13,-0.020332533490112326,-0.020332533490112326,Vmag_get_voltage_magnitude_series__angle_get_voltage_angle_series,true
1.14,-0.02034167155033561,-0.02034167155033561,Vmag_get_voltage_magnitude_series__angle_get_voltage_angle_series,true
1.15,-0.020351728032967663,-0.020351728032967663,Vmag_get_voltage_magnitude_series__angle_get_voltage_angle_series,true
1.16,-0.020362763192620738,-0.020362763192620738,Vmag_get_voltage_magnitude_series__angle_get_voltage_angle_series,true
1.17,-0.020374825638836747,-0.020374825638836747,Vmag_get_voltage_magnitude_series__angle_get_voltage_angle_series,true
1.18,-0.020387952840809534,-0.020387952840809534,Vmag_get_voltage_magnitude_series__angle_get_voltage_angle_series,true
1.19,-0.020402171622864916,-0.020402171622864916,Vmag_get_voltage_magnitude_series__angle_get_voltage_angle_series,true
1.2,-0.020417498719591295,-0.020417498719591295,Vmag_get_voltage_magnitude_series__angle_get_voltage_angle_series,true
1.21,-0.0204339413437464,-0.0204339413437464,Vmag_get_voltage_magnitude_series__angle_get_voltage_angle_series,true
1.22,-0.020451497806178366,-0.020451497806178366,Vmag_get_voltage_magnitude_series__angle_get_voltage_angle_series,true
1.23,-0.02047015811948074,-0.02047015811948074,Vmag_get_voltage_magnitude_series__angle_get_voltage_angle_series,true
1.24,-0.020489904636592796,-0.020489904636592796,Vmag_get_voltage_magnitude_series__angle_get_voltage_angle_series,true
1.25,-0.020510712680433196,-0.020510712680433196,Vmag_get_voltage_magnitude_series__angle_get_voltage_angle_series,true
1.26,-0.02053255120114375,-0.02053255120114375,Vmag_get_voltage_magnitude_series__angle_get_voltage_angle_series,true
1.27,-0.02055538342368889,-0.02055538342368889,Vmag_get_voltage_magnitude_series__angle_get_voltage_angle_series,true
1.28,-0.02057916748128339,-0.02057916748128339,Vmag_get_voltage_magnitude_series__angle_get_voltage_angle_series,true
1.29,-0.020603857049342908,-0.020603857049342908,Vmag_get_voltage_magnitude_series__angle_get_voltage_angle_series,true
1.3,-0.020629401972261974,-0.020629401972261974,Vmag_get_voltage_magnitude_series__angle_get_voltage_angle_series,true
1.31,-0.020655748877975666,-0.020655748877975666,Vmag_get_voltage_magnitude_series__angle_get_voltage_angle_series,true
1.32,-0.0206828417655845,-0.0206828417655845,Vmag_get_voltage_magnitude_series__angle_get_voltage_angle_series,true
1.33,-0.020710622568959218,-0.020710622568959218,Vmag_get_voltage_magnitude_series__angle_get_voltage_angle_series,true
1.34,-0.02073903170894261,-0.02073903170894261,Vmag_get_voltage_magnitude_series__angle_get_voltage_angle_series,true
1.35,-0.020768008622869805,-0.020768008622869805,Vmag_get_voltage_magnitude_series__angle_get_voltage_angle_series,true
1.36,-0.020797492259764072,-0.020797492259764072,Vmag_get_voltage_magnitude_series__angle_get_voltage_angle_series,true
1.37,-0.0208274215342986,-0.0208274215342986,Vmag_get_voltage_magnitude_series__angle_get_voltage_angle_series,true
1.38,-0.02085773577445728,-0.02085773577445728,Vmag_get_voltage_magnitude_series__angle_get_voltage_angle_series,true
1.39,-0.020888375123135836,-0.020888375123135836,Vmag_get_voltage_magnitude_series__angle_get_voltage_angle_series,true
1.4,-0.020919280915378414,-0.020919280915378414,Vmag_get_voltage_magnitude_series__angle_get_voltage_angle_series,true
1.41,-0.020950396015581928,-0.020950396015581928,Vmag_get_voltage_magnitude_series__angle_get_voltage_angle_series,true
1.42,-0.02098166511611113,-0.02098166511611113,Vmag_get_voltage_magnitude_series__angle_get_voltage_angle_series,true
1.43,-0.02101303502163087,-0.02101303502163087,Vmag_get_voltage_magnitude_series__angle_get_voltage_angle_series,true
1.44,-0.02104445488484753,-0.02104445488484753,Vmag_get_voltage_magnitude_series__angle_get_voltage_angle_series,true
1.45,-0.02107587641333781,-0.02107587641333781,Vmag_get_voltage_magnitude_series__angle_get_voltage_angle_series,true
1.46,-0.021107254041993043,-0.021107254041993043,Vmag_get_voltage_magnitude_series__angle_get_voltage_angle_series,true
1.47,-0.021138545075308723,-0.021138545075308723,Vmag_get_voltage_magnitude_series__angle_get_voltage_angle_series,true
1.48,-0.02116970980365684,-0.02116970980365684,Vmag_get_voltage_magnitude_series__angle_get_voltage_angle_series,true
1.49,-0.021200711586458157,-0.021200711586458157,Vmag_get_voltage_magnitude_series__angle_get_voltage_angle_series,true
1.5,-0.021231516895653158,-0.021231516895653158,Vmag_get_voltage_magnitude_series__angle_get_voltage_angle_series,true
1.51,-0.021262095350245314,-0.021262095350245314,Vmag_get_voltage_magnitude_series__angle_get_voltage_angle_series,true
1.52,-0.0212924197179533,-0.0212924197179533,Vmag_get_voltage_magnitude_series__angle_get_voltage_angle_series,true
1.53,-0.02132246588934497,-0.02132246588934497,Vmag_get_voltage_magnitude_series__angle_get_voltage_angle_series,true
1.54,-0.021352212835610347,-0.021352212835610347,Vmag_get_voltage_magnitude_series__angle_get_voltage_angle_series,true
1.55,-0.021381642533681883,-0.021381642533681883,Vmag_get_voltage_magnitude_series__angle_get_voltage_angle_series,true
1.56,-0.021410739889752364,-0.021410739889752364,Vmag_get_voltage_magnitude_series__angle_get_voltage_angle_series,true
1.57,-0.021439492636166964,-0.021439492636166964,Vmag_get_voltage_magnitude_series__angle_get_voltage_angle_series,true
1.58,-0.0214678912140277,-0.0214678912140277,Vmag_get_voltage_magnitude_series__angle_get_voltage_angle_series,true
1.59,-0.02149592863298183,-0.02149592863298183,Vmag_get_voltage_magnitude_series__angle_get_voltage_angle_series,true
1.6,-0.02152360034050941,-0.02152360034050941,Vmag_get_voltage_magnitude_series__angle_get_voltage_angle_series,true
1.61,-0.0215509040653101,-0.0215509040653101,Vmag_get_voltage_magnitude_series__angle_get_voltage_angle_series,true
1.62,-0.021577839656940313,-0.021577839656940313,Vmag_get_voltage_magnitude_series__angle_get_voltage_angle_series,true
1.63,-0.02160440891731054,-0.02160440891731054,Vmag_get_voltage_magnitude_series__angle_get_voltage_angle_series,true
1.64,-0.02163061542969741,-0.02163061542969741,Vmag_get_voltage_magnitude_series__angle_get_voltage_angle_series,true
1.65,-0.02165646438926477,-0.02165646438926477,Vmag_get_voltage_magnitude_series__angle_get_voltage_angle_series,true
1.66,-0.021681962422998607,-0.021681962422998607,Vmag_get_voltage_magnitude_series__angle_get_voltage_angle_series,true
1.67,-0.02170711741509146,-0.02170711741509146,Vmag_get_voltage_magnitude_series__angle_get_voltage_angle_series,true
1.68,-0.021731938331823755,-0.021731938331823755,Vmag_get_voltage_magnitude_series__angle_get_voltage_angle_series,true
1.69,-0.021756435052666768,-0.021756435052666768,Vmag_get_voltage_magnitude_series__angle_get_voltage_angle_series,true
1.7,-0.021780618203377292,-0.021780618203377292,Vmag_get_voltage_magnitude_series__angle_get_voltage_angle_series,true
1.71,-0.021804498990033498,-0.021804498990033498,Vmag_get_voltage_magnitude_series__angle_get_voltage_angle_series,true
1.72,-0.021828089045066314,-0.021828089045066314,Vmag_get_voltage_magnitude_series__angle_get_voltage_angle_series,true
1.73,-0.021851400278522597,-0.021851400278522597,Vmag_get_voltage_magnitude_series__angle_get_voltage_angle_series,true
1.74,-0.021874444736596988,-0.021874444736596988,Vmag_get_voltage_magnitude_series__angle_get_voltage_angle_series,true
1.75,-0.02189723446704088,-0.02189723446704088,Vmag_get_voltage_magnitude_series__angle_get_voltage_angle_series,true
1.76,-0.021919781395876532,-0.021919781395876532,Vmag_get_voltage_magnitude_series__angle_get_voltage_angle_series,true
1.77,-0.021942097212497916,-0.021942097212497916,Vmag_get_voltage_magnitude_series__angle_get_voltage_angle_series,true
1.78,-0.02196419326687754,-0.02196419326687754,Vmag_get_voltage_magnitude_series__angle_get_voltage_angle_series,true
1.79,-0.02198608047294595,-0.02198608047294595,Vmag_get_voltage_magnitude_series__angle_get_voltage_angle_series,true
1.8,-0.022007769224238076,-0.022007769224238076,Vmag_get_voltage_magnitude_series__angle_get_voltage_angle_series,true
1.81,-0.022029269320731758,-0.022029269320731758,Vmag_get_voltage_magnitude_series__angle_get_voltage_angle_series,true
1.82,-0.022050589906777357,-0.022050589906777357,Vmag_get_voltage_magnitude_series__angle_get_voltage_angle_series,true
1.83,-0.02207173941647264,-0.02207173941647264,Vmag_get_voltage_magnitude_series__angle_get_voltage_angle_series,true
1.84,-0.022092725530553074,-0.022092725530553074,Vmag_get_voltage_magnitude_series__angle_get_voltage_angle_series,true
1.85,-0.022113555143456073,-0.022113555143456073,Vmag_get_voltage_magnitude_series__angle_get_voltage_angle_series,true
1.86,-0.022134234341617168,-0.022134234341617168,Vmag_get_voltage_magnitude_series__angle_get_voltage_angle_series,true
1.87,-0.02215476838878009,-0.02215476838878009,Vmag_get_voltage_magnitude_series__angle_get_voltage_angle_series,true
1.88,-0.0221751617195447,-0.0221751617195447,Vmag_get_voltage_magnitude_series__angle_get_voltage_angle_series,true
1.89,-0.022195417942458724,-0.022195417942458724,Vmag_get_voltage_magnitude_series__angle_get_voltage_angle_series,true
1.9,-0.022215539853974627,-0.022215539853974627,Vmag_get_voltage_magnitude_series__angle_get_voltage_angle_series,true
1.91,-0.02223552945503774,-0.02223552945503774,Vmag_get_voltage_magnitude_series__angle_get_voltage_angle_series,true
1.92,-0.022255387975951415,-0.022255387975951415,Vmag_get_voltage_magnitude_series__angle_get_voltage_angle_series,true
1.93,-0.022275115907463193,-0.022275115907463193,Vmag_get_voltage_magnitude_series__angle_get_voltage_angle_series,true
1.94,-0.022294713039466615,-0.022294713039466615,Vmag_get_voltage_magnitude_series__angle_get_voltage_angle_series,true
1.95,-0.022314178502778503,-0.022314178502778503,Vmag_get_voltage_magnitude_series__angle_get_voltage_angle_series,true
1.96,-0.022333510814263942,-0.022333510814263942,Vmag_get_voltage_magnitude_series__angle_get_voltage_angle_series,true
1.97,-0.022352707926617338,-0.022352707926617338,Vmag_get_voltage_magnitude_series__angle_get_voltage_angle_series,true
1.98,-0.022371767281949187,-0.022371767281949187,Vmag_get_voltage_magnitude_series__angle_get_voltage_angle_series,true
1.99,-0.02239068586830767,-0.02239068586830767,Vmag_get_voltage_magnitude_series__angle_get_voltage_angle_series,true
...
